REMARK  Name = YY3.pdb
REMARK  15 active torsions:
REMARK  status: ('A' for Active; 'I' for Inactive)
REMARK    1  A    between atoms: _1  and  _2
REMARK    2  A    between atoms: _2  and  _3
REMARK    3  A    between atoms: _2  and  _4
REMARK    4  A    between atoms: _4  and  _5
REMARK    5  A    between atoms: _5  and  _6
REMARK    6  A    between atoms: _6  and  _7
REMARK    7  A    between atoms: _6  and  _12
REMARK    8  A    between atoms: _9  and  _10
REMARK    9  A    between atoms: _10  and  _11
REMARK   10  A    between atoms: _13  and  _14
REMARK   11  A    between atoms: _15  and  _17
REMARK   12  A    between atoms: _17  and  _18
REMARK   13  A    between atoms: _20  and  _21
REMARK   14  A    between atoms: _27  and  _28
REMARK   15  A    between atoms: _35  and  _36
REMARK                            x       y       z     vdW  Elec       q    Type
REMARK                         _______ _______ _______ _____ _____    ______ ____
ROOT
ATOM      1  C   UNL     1     -41.930 -21.557  31.748  0.00  0.00    +0.055 A 
ATOM      2  C   UNL     1     -40.844 -20.862  32.190  0.00  0.00    +0.057 A 
ATOM      3  C   UNL     1     -39.920 -20.422  31.255  0.00  0.00    +0.052 A 
ATOM      4  C   UNL     1     -39.952 -20.664  29.909  0.00  0.00    +0.083 A 
ATOM      5  C   UNL     1     -41.045 -21.401  29.523  0.00  0.00    +0.144 A 
ATOM      6  C   UNL     1     -41.967 -21.836  30.395  0.00  0.00    +0.072 A 
ENDROOT
BRANCH   4   7
ATOM      7  N   UNL     1     -38.963 -20.211  29.041  0.00  0.00    -0.255 N 
ATOM      8  H   UNL     1     -38.879 -20.684  28.182  0.00  0.00    +0.164 HD
ATOM      9  C   UNL     1     -38.130 -19.217  29.251  0.00  0.00    +0.090 C 
ATOM     10  N   UNL     1     -38.223 -18.518  30.332  0.00  0.00    -0.183 NA
ATOM     11  C   UNL     1     -37.389 -17.586  30.535  0.00  0.00    +0.083 C 
ATOM     12  C   UNL     1     -36.429 -17.235  29.631  0.00  0.00    +0.026 C 
ATOM     13  C   UNL     1     -36.397 -18.037  28.499  0.00  0.00    +0.184 C 
ATOM     14  N   UNL     1     -37.234 -19.014  28.321  0.00  0.00    -0.216 NA
BRANCH  11  15
ATOM     15  C   UNL     1     -37.537 -16.845  31.685  0.00  0.00    +0.026 A 
ATOM     16  C   UNL     1     -38.636 -16.709  32.579  0.00  0.00    +0.009 A 
ATOM     17  C   UNL     1     -38.301 -15.833  33.517  0.00  0.00    +0.049 A 
ATOM     18  C   UNL     1     -39.105 -15.486  34.530  0.00  0.00    +0.026 A 
ATOM     19  C   UNL     1     -40.309 -16.059  34.576  0.00  0.00    +0.002 A 
ATOM     20  C   UNL     1     -40.688 -16.951  33.628  0.00  0.00    +0.001 A 
ATOM     21  N   UNL     1     -37.123 -15.450  33.234  0.00  0.00    -0.349 N 
ATOM     22  C   UNL     1     -36.447 -14.525  33.995  0.00  0.00    +0.149 C 
ATOM     23  C   UNL     1     -39.844 -17.266  32.648  0.00  0.00    +0.010 A 
ATOM     24  C   UNL     1     -36.648 -15.999  32.185  0.00  0.00    +0.096 A 
ENDBRANCH  11  15
ENDBRANCH   4   7
BRANCH   2  25
ATOM     25  N   UNL     1     -40.785 -20.512  33.550  0.00  0.00    -0.284 N 
ATOM     26  H   UNL     1     -41.568 -20.789  34.079  0.00  0.00    +0.155 HD
ATOM     27  C   UNL     1     -39.812 -19.845  34.267  0.00  0.00    +0.217 C 
ATOM     28  O   UNL     1     -38.770 -19.652  33.849  0.00  0.00    -0.275 OA
BRANCH  27  29
ATOM     29  C   UNL     1     -39.980 -19.486  35.582  0.00  0.00    +0.093 C 
ATOM     30  C   UNL     1     -39.219 -20.385  36.343  0.00  0.00    +0.013 C 
ENDBRANCH  27  29
ENDBRANCH   2  25
BRANCH   1  31
ATOM     31  N   UNL     1     -42.906 -22.062  32.609  0.00  0.00    -0.330 N 
ATOM     32  C   UNL     1     -42.571 -23.261  33.390  0.00  0.00    +0.129 C 
BRANCH  31  33
ATOM     33  C   UNL     1     -44.215 -21.532  32.810  0.00  0.00    +0.120 C 
BRANCH  33  34
ATOM     34  C   UNL     1     -44.378 -20.538  33.945  0.00  0.00    +0.102 C 
BRANCH  34  36
ATOM     35  C   UNL     1     -43.690 -19.941  36.131  0.00  0.00    +0.104 C 
ATOM     36  N   UNL     1     -44.006 -21.049  35.294  0.00  0.00    -0.307 NA
ATOM     37  C   UNL     1     -45.135 -21.703  35.894  0.00  0.00    +0.104 C 
ENDBRANCH  34  36
ENDBRANCH  33  34
ENDBRANCH  31  33
ENDBRANCH   1  31
BRANCH   5  38
ATOM     38  O   UNL     1     -41.187 -21.731  28.250  0.00  0.00    -0.493 OA
ATOM     39  C   UNL     1     -42.403 -21.941  27.796  0.00  0.00    +0.277 C 
ENDBRANCH   5  38
TORSDOF 9
