REMARK  Name = STI.pdb
REMARK  6 active torsions:
REMARK  status: ('A' for Active; 'I' for Inactive)
REMARK    1  A    between atoms: _3  and  _7
REMARK    2  A    between atoms: _13  and  _14
REMARK    3  A    between atoms: _18  and  _20
REMARK    4  A    between atoms: _21  and  _22
REMARK    5  A    between atoms: _25  and  _28
REMARK    6  A    between atoms: _28  and  _29
REMARK                            x       y       z     vdW  Elec       q    Type
REMARK                         _______ _______ _______ _____ _____    ______ ____
ROOT
ATOM      1  C   UNL     1      20.314  14.118  55.759  0.00  0.00    +0.079 A 
ATOM      2  C   UNL     1      20.476  12.763  56.145  0.00  0.00    -0.006 A 
ATOM      3  C   UNL     1      21.821  12.246  56.703  0.00  0.00    +0.032 C 
ATOM      4  C   UNL     1      19.375  11.889  56.033  0.00  0.00    -0.002 A 
ATOM      5  C   UNL     1      18.137  12.325  55.506  0.00  0.00    +0.016 A 
ATOM      6  C   UNL     1      17.963  13.685  55.198  0.00  0.00    +0.075 A 
ATOM      7  C   UNL     1      19.064  14.549  55.287  0.00  0.00    +0.034 A 
ENDROOT
BRANCH   1  13
ATOM      8  C   UNL     1      23.166  17.094  58.063  0.00  0.00    +0.092 C 
ATOM      9  C   UNL     1      22.423  16.970  59.251  0.00  0.00    +0.021 C 
ATOM     10  C   UNL     1      21.279  16.166  59.238  0.00  0.00    +0.165 C 
ATOM     11  N   UNL     1      20.939  15.528  58.093  0.00  0.00    -0.201 NA
ATOM     12  C   UNL     1      21.653  15.685  56.950  0.00  0.00    +0.112 C 
ATOM     13  N   UNL     1      21.329  15.033  55.811  0.00  0.00    -0.146 NA
ATOM     14  N   UNL     1      22.764  16.449  56.956  0.00  0.00    -0.181 NA
BRANCH   8  17
ATOM     15  C   UNL     1      25.924  19.545  58.878  0.00  0.00    +0.021 A 
ATOM     16  C   UNL     1      24.745  18.781  58.992  0.00  0.00    +0.005 A 
ATOM     17  C   UNL     1      24.382  17.928  57.937  0.00  0.00    +0.037 A 
ATOM     18  C   UNL     1      25.151  17.926  56.751  0.00  0.00    +0.100 A 
ATOM     19  N   UNL     1      26.269  18.688  56.655  0.00  0.00    -0.242 NA
ATOM     20  C   UNL     1      26.659  19.480  57.689  0.00  0.00    +0.099 A 
ENDBRANCH   8  17
ENDBRANCH   1  13
BRANCH   6  21
ATOM     21  N   UNL     1      16.767  14.114  54.536  0.00  0.00    -0.175 NA
ATOM     22  C   UNL     1      16.405  15.334  54.085  0.00  0.00    +0.269 C 
ATOM     23  O   UNL     1      17.050  16.355  54.280  0.00  0.00    -0.268 OA
BRANCH  22  24
ATOM     24  C   UNL     1      15.096  15.478  53.318  0.00  0.00    +0.055 A 
ATOM     25  C   UNL     1      14.038  14.555  53.441  0.00  0.00    +0.004 A 
ATOM     26  C   UNL     1      12.857  14.730  52.704  0.00  0.00    -0.003 A 
ATOM     27  C   UNL     1      12.732  15.812  51.815  0.00  0.00    -0.006 A 
ATOM     28  C   UNL     1      13.801  16.718  51.667  0.00  0.00    -0.003 A 
ATOM     29  C   UNL     1      14.972  16.545  52.414  0.00  0.00    +0.004 A 
BRANCH  27  30
ATOM     30  C   UNL     1      11.454  16.021  50.989  0.00  0.00    +0.099 C 
BRANCH  30  31
ATOM     31  N   UNL     1      10.236  15.850  51.821  0.00  0.00    -0.267 NA
ATOM     32  C   UNL     1      10.203  16.614  53.094  0.00  0.00    +0.090 C 
ATOM     33  C   UNL     1       8.969  16.216  53.936  0.00  0.00    +0.090 C 
ATOM     34  N   UNL     1       7.730  16.335  53.118  0.00  0.00    -0.269 NA
ATOM     35  C   UNL     1       6.514  15.970  53.896  0.00  0.00    +0.090 C 
ATOM     36  C   UNL     1       7.803  15.519  51.880  0.00  0.00    +0.090 C 
ATOM     37  C   UNL     1       8.992  15.988  51.017  0.00  0.00    +0.090 C 
ENDBRANCH  30  31
ENDBRANCH  27  30
ENDBRANCH  22  24
ENDBRANCH   6  21
TORSDOF 6
